Version 4
SHEET 1 880 680
WIRE 176 48 64 48
WIRE 336 48 256 48
WIRE 64 144 64 48
WIRE 336 144 336 48
WIRE 64 272 64 224
WIRE 336 272 336 224
FLAG 64 272 0
FLAG 336 272 0
FLAG 336 48 Vout
FLAG 64 48 Vin
SYMBOL voltage 64 128 R0
SYMATTR InstName V1
SYMATTR Value 12
SYMBOL res 320 128 R0
SYMATTR InstName R1
SYMATTR Value 6
SYMBOL res 272 32 R90
WINDOW 0 0 56 VBottom 2
WINDOW 3 32 56 VTop 2
SYMATTR InstName R2
SYMATTR Value {Rvar}
TEXT 48 336 Left 2 !.param Rvar=100\n.step param Rvar 1n 595 100m\n.op
